data_image0
_chemical_formula_structural       O32C32H32Ti16O16C16O24C48
_chemical_formula_sum              "O72 C96 H32 Ti16"
_cell_length_a       18.6543
_cell_length_b       18.6543
_cell_length_c       18.1444
_cell_angle_alpha    90
_cell_angle_beta     90
_cell_angle_gamma    90

_space_group_name_H-M_alt    "P 1"
_space_group_IT_number       1

loop_
  _space_group_symop_operation_xyz
  'x, y, z'

loop_
  _atom_site_type_symbol
  _atom_site_label
  _atom_site_symmetry_multiplicity
  _atom_site_fract_x
  _atom_site_fract_y
  _atom_site_fract_z
  _atom_site_occupancy
  O   O1        1.0  0.22590  0.14420  0.42680  1.0000
  O   O2        1.0  0.77410  0.85580  0.42680  1.0000
  O   O3        1.0  0.85580  0.22590  0.42680  1.0000
  O   O4        1.0  0.14420  0.77410  0.42680  1.0000
  O   O5        1.0  0.77410  0.14420  0.57320  1.0000
  O   O6        1.0  0.22590  0.85580  0.57320  1.0000
  O   O7        1.0  0.14420  0.22590  0.57320  1.0000
  O   O8        1.0  0.85580  0.77410  0.57320  1.0000
  O   O9        1.0  0.77410  0.85580  0.57320  1.0000
  O   O10       1.0  0.22590  0.14420  0.57320  1.0000
  O   O11       1.0  0.14420  0.77410  0.57320  1.0000
  O   O12       1.0  0.85580  0.22590  0.57320  1.0000
  O   O13       1.0  0.22590  0.85580  0.42680  1.0000
  O   O14       1.0  0.77410  0.14420  0.42680  1.0000
  O   O15       1.0  0.85580  0.77410  0.42680  1.0000
  O   O16       1.0  0.14420  0.22590  0.42680  1.0000
  O   O17       1.0  0.72590  0.64420  0.92680  1.0000
  O   O18       1.0  0.27410  0.35580  0.92680  1.0000
  O   O19       1.0  0.35580  0.72590  0.92680  1.0000
  O   O20       1.0  0.64420  0.27410  0.92680  1.0000
  O   O21       1.0  0.27410  0.64420  0.07320  1.0000
  O   O22       1.0  0.72590  0.35580  0.07320  1.0000
  O   O23       1.0  0.64420  0.72590  0.07320  1.0000
  O   O24       1.0  0.35580  0.27410  0.07320  1.0000
  O   O25       1.0  0.27410  0.35580  0.07320  1.0000
  O   O26       1.0  0.72590  0.64420  0.07320  1.0000
  O   O27       1.0  0.64420  0.27410  0.07320  1.0000
  O   O28       1.0  0.35580  0.72590  0.07320  1.0000
  O   O29       1.0  0.72590  0.35580  0.92680  1.0000
  O   O30       1.0  0.27410  0.64420  0.92680  1.0000
  O   O31       1.0  0.35580  0.27410  0.92680  1.0000
  O   O32       1.0  0.64420  0.72590  0.92680  1.0000
  C   C1        1.0  0.20150  0.28760  0.28980  1.0000
  C   C2        1.0  0.79850  0.71240  0.28980  1.0000
  C   C3        1.0  0.71240  0.20150  0.28980  1.0000
  C   C4        1.0  0.28760  0.79850  0.28980  1.0000
  C   C5        1.0  0.79850  0.28760  0.71020  1.0000
  C   C6        1.0  0.20150  0.71240  0.71020  1.0000
  C   C7        1.0  0.28760  0.20150  0.71020  1.0000
  C   C8        1.0  0.71240  0.79850  0.71020  1.0000
  C   C9        1.0  0.79850  0.71240  0.71020  1.0000
  C   C10       1.0  0.20150  0.28760  0.71020  1.0000
  C   C11       1.0  0.28760  0.79850  0.71020  1.0000
  C   C12       1.0  0.71240  0.20150  0.71020  1.0000
  C   C13       1.0  0.20150  0.71240  0.28980  1.0000
  C   C14       1.0  0.79850  0.28760  0.28980  1.0000
  C   C15       1.0  0.71240  0.79850  0.28980  1.0000
  C   C16       1.0  0.28760  0.20150  0.28980  1.0000
  C   C17       1.0  0.70150  0.78760  0.78980  1.0000
  C   C18       1.0  0.29850  0.21240  0.78980  1.0000
  C   C19       1.0  0.21240  0.70150  0.78980  1.0000
  C   C20       1.0  0.78760  0.29850  0.78980  1.0000
  C   C21       1.0  0.29850  0.78760  0.21020  1.0000
  C   C22       1.0  0.70150  0.21240  0.21020  1.0000
  C   C23       1.0  0.78760  0.70150  0.21020  1.0000
  C   C24       1.0  0.21240  0.29850  0.21020  1.0000
  C   C25       1.0  0.29850  0.21240  0.21020  1.0000
  C   C26       1.0  0.70150  0.78760  0.21020  1.0000
  C   C27       1.0  0.78760  0.29850  0.21020  1.0000
  C   C28       1.0  0.21240  0.70150  0.21020  1.0000
  C   C29       1.0  0.70150  0.21240  0.78980  1.0000
  C   C30       1.0  0.29850  0.78760  0.78980  1.0000
  C   C31       1.0  0.21240  0.29850  0.78980  1.0000
  C   C32       1.0  0.78760  0.70150  0.78980  1.0000
  H   H1        1.0  0.17651  0.33095  0.32587  1.0000
  H   H2        1.0  0.82349  0.66905  0.32587  1.0000
  H   H3        1.0  0.66905  0.17651  0.32587  1.0000
  H   H4        1.0  0.33095  0.82349  0.32587  1.0000
  H   H5        1.0  0.82349  0.33095  0.67413  1.0000
  H   H6        1.0  0.17651  0.66905  0.67413  1.0000
  H   H7        1.0  0.33095  0.17651  0.67413  1.0000
  H   H8        1.0  0.66905  0.82349  0.67413  1.0000
  H   H9        1.0  0.82349  0.66905  0.67413  1.0000
  H   H10       1.0  0.17651  0.33095  0.67413  1.0000
  H   H11       1.0  0.33095  0.82349  0.67413  1.0000
  H   H12       1.0  0.66905  0.17651  0.67413  1.0000
  H   H13       1.0  0.17651  0.66905  0.32587  1.0000
  H   H14       1.0  0.82349  0.33095  0.32587  1.0000
  H   H15       1.0  0.66905  0.82349  0.32587  1.0000
  H   H16       1.0  0.33095  0.17651  0.32587  1.0000
  H   H17       1.0  0.67651  0.83095  0.82587  1.0000
  H   H18       1.0  0.32349  0.16905  0.82587  1.0000
  H   H19       1.0  0.16905  0.67651  0.82587  1.0000
  H   H20       1.0  0.83095  0.32349  0.82587  1.0000
  H   H21       1.0  0.32349  0.83095  0.17413  1.0000
  H   H22       1.0  0.67651  0.16905  0.17413  1.0000
  H   H23       1.0  0.83095  0.67651  0.17413  1.0000
  H   H24       1.0  0.16905  0.32349  0.17413  1.0000
  H   H25       1.0  0.32349  0.16905  0.17413  1.0000
  H   H26       1.0  0.67651  0.83095  0.17413  1.0000
  H   H27       1.0  0.83095  0.32349  0.17413  1.0000
  H   H28       1.0  0.16905  0.67651  0.17413  1.0000
  H   H29       1.0  0.67651  0.16905  0.82587  1.0000
  H   H30       1.0  0.32349  0.83095  0.82587  1.0000
  H   H31       1.0  0.16905  0.32349  0.82587  1.0000
  H   H32       1.0  0.83095  0.67651  0.82587  1.0000
  Ti  Ti1       1.0  0.20830  0.07400  0.50000  1.0000
  Ti  Ti2       1.0  0.79170  0.92600  0.50000  1.0000
  Ti  Ti3       1.0  0.92600  0.20830  0.50000  1.0000
  Ti  Ti4       1.0  0.07400  0.79170  0.50000  1.0000
  Ti  Ti5       1.0  0.79170  0.07400  0.50000  1.0000
  Ti  Ti6       1.0  0.20830  0.92600  0.50000  1.0000
  Ti  Ti7       1.0  0.07400  0.20830  0.50000  1.0000
  Ti  Ti8       1.0  0.92600  0.79170  0.50000  1.0000
  Ti  Ti9       1.0  0.70830  0.57400  0.00000  1.0000
  Ti  Ti10      1.0  0.29170  0.42600  0.00000  1.0000
  Ti  Ti11      1.0  0.42600  0.70830  0.00000  1.0000
  Ti  Ti12      1.0  0.57400  0.29170  0.00000  1.0000
  Ti  Ti13      1.0  0.29170  0.57400  0.00000  1.0000
  Ti  Ti14      1.0  0.70830  0.42600  0.00000  1.0000
  Ti  Ti15      1.0  0.57400  0.70830  0.00000  1.0000
  Ti  Ti16      1.0  0.42600  0.29170  0.00000  1.0000
  O   O33       1.0  0.31110  0.05800  0.50000  1.0000
  O   O34       1.0  0.68890  0.94200  0.50000  1.0000
  O   O35       1.0  0.94200  0.31110  0.50000  1.0000
  O   O36       1.0  0.05800  0.68890  0.50000  1.0000
  O   O37       1.0  0.68890  0.05800  0.50000  1.0000
  O   O38       1.0  0.31110  0.94200  0.50000  1.0000
  O   O39       1.0  0.05800  0.31110  0.50000  1.0000
  O   O40       1.0  0.94200  0.68890  0.50000  1.0000
  O   O41       1.0  0.81110  0.55800  0.00000  1.0000
  O   O42       1.0  0.18890  0.44200  0.00000  1.0000
  O   O43       1.0  0.44200  0.81110  0.00000  1.0000
  O   O44       1.0  0.55800  0.18890  0.00000  1.0000
  O   O45       1.0  0.18890  0.55800  0.00000  1.0000
  O   O46       1.0  0.81110  0.44200  0.00000  1.0000
  O   O47       1.0  0.55800  0.81110  0.00000  1.0000
  O   O48       1.0  0.44200  0.18890  0.00000  1.0000
  C   C33       1.0  0.46320  0.07050  0.50000  1.0000
  C   C34       1.0  0.53680  0.92950  0.50000  1.0000
  C   C35       1.0  0.92950  0.46320  0.50000  1.0000
  C   C36       1.0  0.07050  0.53680  0.50000  1.0000
  C   C37       1.0  0.53680  0.07050  0.50000  1.0000
  C   C38       1.0  0.46320  0.92950  0.50000  1.0000
  C   C39       1.0  0.07050  0.46320  0.50000  1.0000
  C   C40       1.0  0.92950  0.53680  0.50000  1.0000
  C   C41       1.0  0.96320  0.57050  0.00000  1.0000
  C   C42       1.0  0.03680  0.42950  0.00000  1.0000
  C   C43       1.0  0.42950  0.96320  0.00000  1.0000
  C   C44       1.0  0.57050  0.03680  0.00000  1.0000
  C   C45       1.0  0.03680  0.57050  0.00000  1.0000
  C   C46       1.0  0.96320  0.42950  0.00000  1.0000
  C   C47       1.0  0.57050  0.96320  0.00000  1.0000
  C   C48       1.0  0.42950  0.03680  0.00000  1.0000
  O   O49       1.0  0.18190  0.00000  0.42650  1.0000
  O   O50       1.0  0.81810  0.00000  0.42650  1.0000
  O   O51       1.0  0.00000  0.18190  0.42650  1.0000
  O   O52       1.0  0.00000  0.81810  0.42650  1.0000
  O   O53       1.0  0.81810  0.00000  0.57350  1.0000
  O   O54       1.0  0.18190  0.00000  0.57350  1.0000
  O   O55       1.0  0.00000  0.18190  0.57350  1.0000
  O   O56       1.0  0.00000  0.81810  0.57350  1.0000
  O   O57       1.0  0.68190  0.50000  0.92650  1.0000
  O   O58       1.0  0.31810  0.50000  0.92650  1.0000
  O   O59       1.0  0.50000  0.68190  0.92650  1.0000
  O   O60       1.0  0.50000  0.31810  0.92650  1.0000
  O   O61       1.0  0.31810  0.50000  0.07350  1.0000
  O   O62       1.0  0.68190  0.50000  0.07350  1.0000
  O   O63       1.0  0.50000  0.68190  0.07350  1.0000
  O   O64       1.0  0.50000  0.31810  0.07350  1.0000
  O   O65       1.0  0.10740  0.10740  0.50000  1.0000
  O   O66       1.0  0.89260  0.89260  0.50000  1.0000
  O   O67       1.0  0.89260  0.10740  0.50000  1.0000
  O   O68       1.0  0.10740  0.89260  0.50000  1.0000
  O   O69       1.0  0.60740  0.60740  0.00000  1.0000
  O   O70       1.0  0.39260  0.39260  0.00000  1.0000
  O   O71       1.0  0.39260  0.60740  0.00000  1.0000
  O   O72       1.0  0.60740  0.39260  0.00000  1.0000
  C   C49       1.0  0.35070  0.00000  0.50000  1.0000
  C   C50       1.0  0.64930  0.00000  0.50000  1.0000
  C   C51       1.0  0.00000  0.35070  0.50000  1.0000
  C   C52       1.0  0.00000  0.64930  0.50000  1.0000
  C   C53       1.0  0.85070  0.50000  0.00000  1.0000
  C   C54       1.0  0.14930  0.50000  0.00000  1.0000
  C   C55       1.0  0.50000  0.85070  0.00000  1.0000
  C   C56       1.0  0.50000  0.14930  0.00000  1.0000
  C   C57       1.0  0.42650  0.00000  0.50000  1.0000
  C   C58       1.0  0.57350  0.00000  0.50000  1.0000
  C   C59       1.0  0.00000  0.42650  0.50000  1.0000
  C   C60       1.0  0.00000  0.57350  0.50000  1.0000
  C   C61       1.0  0.92650  0.50000  0.00000  1.0000
  C   C62       1.0  0.07350  0.50000  0.00000  1.0000
  C   C63       1.0  0.50000  0.92650  0.00000  1.0000
  C   C64       1.0  0.50000  0.07350  0.00000  1.0000
  C   C65       1.0  0.19400  0.19400  0.40230  1.0000
  C   C66       1.0  0.80600  0.80600  0.40230  1.0000
  C   C67       1.0  0.80600  0.19400  0.40230  1.0000
  C   C68       1.0  0.19400  0.80600  0.40230  1.0000
  C   C69       1.0  0.80600  0.19400  0.59770  1.0000
  C   C70       1.0  0.19400  0.80600  0.59770  1.0000
  C   C71       1.0  0.19400  0.19400  0.59770  1.0000
  C   C72       1.0  0.80600  0.80600  0.59770  1.0000
  C   C73       1.0  0.69400  0.69400  0.90230  1.0000
  C   C74       1.0  0.30600  0.30600  0.90230  1.0000
  C   C75       1.0  0.30600  0.69400  0.90230  1.0000
  C   C76       1.0  0.69400  0.30600  0.90230  1.0000
  C   C77       1.0  0.30600  0.69400  0.09770  1.0000
  C   C78       1.0  0.69400  0.30600  0.09770  1.0000
  C   C79       1.0  0.69400  0.69400  0.09770  1.0000
  C   C80       1.0  0.30600  0.30600  0.09770  1.0000
  C   C81       1.0  0.22250  0.22250  0.32090  1.0000
  C   C82       1.0  0.77750  0.77750  0.32090  1.0000
  C   C83       1.0  0.77750  0.22250  0.32090  1.0000
  C   C84       1.0  0.22250  0.77750  0.32090  1.0000
  C   C85       1.0  0.77750  0.22250  0.67910  1.0000
  C   C86       1.0  0.22250  0.77750  0.67910  1.0000
  C   C87       1.0  0.22250  0.22250  0.67910  1.0000
  C   C88       1.0  0.77750  0.77750  0.67910  1.0000
  C   C89       1.0  0.72250  0.72250  0.82090  1.0000
  C   C90       1.0  0.27750  0.27750  0.82090  1.0000
  C   C91       1.0  0.27750  0.72250  0.82090  1.0000
  C   C92       1.0  0.72250  0.27750  0.82090  1.0000
  C   C93       1.0  0.27750  0.72250  0.17910  1.0000
  C   C94       1.0  0.72250  0.27750  0.17910  1.0000
  C   C95       1.0  0.72250  0.72250  0.17910  1.0000
  C   C96       1.0  0.27750  0.27750  0.17910  1.0000
loop_
_geom_bond_atom_site_label_1
_geom_bond_atom_site_label_2
_geom_bond_distance
O1	Ti1	1.8938586640761046
O1	C65	1.189426868499653
O2	Ti2	1.893858664076106
O2	C66	1.1894268684996536
O3	Ti3	1.8938586640761057
O3	C67	1.1894268684996518
O4	Ti4	1.8938586640761048
O4	C68	1.1894268684996547
O5	Ti5	1.893858664076106
O5	C69	1.1894268684996536
O6	Ti6	1.893858664076107
O6	C70	1.1894268684996507
O7	Ti7	1.8938586640761057
O7	C71	1.1894268684996518
O8	Ti8	1.8938586640761073
O8	C72	1.1894268684996525
O9	Ti2	1.8938586640761073
O9	C72	1.1894268684996525
O10	Ti1	1.8938586640761057
O10	C71	1.1894268684996518
O11	Ti4	1.893858664076106
O11	C70	1.1894268684996536
O12	Ti3	1.893858664076107
O12	C69	1.1894268684996507
O13	Ti6	1.8938586640761057
O13	C68	1.1894268684996518
O14	Ti5	1.8938586640761048
O14	C67	1.1894268684996547
O15	Ti8	1.893858664076106
O15	C66	1.1894268684996536
O16	Ti7	1.8938586640761046
O16	C65	1.189426868499653
O17	C73	1.1894268684996525
O18	C74	1.1894268684996512
O19	C75	1.1894268684996525
O20	C76	1.1894268684996512
O21	Ti13	1.8938586640761037
O21	C77	1.1894268684996516
O22	Ti14	1.8938586640761046
O22	C78	1.1894268684996532
O23	Ti15	1.8938586640761033
O23	C79	1.1894268684996532
O24	Ti16	1.8938586640761048
O24	C80	1.1894268684996516
O25	Ti10	1.8938586640761048
O25	C80	1.1894268684996516
O26	Ti9	1.8938586640761033
O26	C79	1.1894268684996532
O27	Ti12	1.8938586640761037
O27	C78	1.1894268684996516
O28	Ti11	1.8938586640761046
O28	C77	1.1894268684996532
O29	C76	1.1894268684996525
O30	C75	1.1894268684996512
O31	C74	1.1894268684996512
O32	C73	1.1894268684996525
C1	C24	1.4726416911158566
C1	H1	1.1399919738155588
C1	C81	1.395220291123126
C2	C23	1.4726416911158562
C2	H2	1.1399919738155564
C2	C82	1.3952202911231262
C3	C22	1.4726416911158562
C3	H3	1.1399919738155564
C3	C83	1.395220291123126
C4	C21	1.4726416911158564
C4	H4	1.1399919738155588
C4	C84	1.3952202911231262
C5	C20	1.4726416911158582
C5	H5	1.1399919738155593
C5	C85	1.3952202911231246
C6	C19	1.472641691115858
C6	H6	1.1399919738155568
C6	C86	1.3952202911231244
C7	C18	1.4726416911158584
C7	H7	1.1399919738155593
C7	C87	1.3952202911231244
C8	C17	1.472641691115858
C8	H8	1.1399919738155568
C8	C88	1.3952202911231246
C9	C32	1.472641691115858
C9	H9	1.1399919738155568
C9	C88	1.3952202911231246
C10	C31	1.4726416911158584
C10	H10	1.1399919738155593
C10	C87	1.3952202911231244
C11	C30	1.4726416911158582
C11	H11	1.1399919738155593
C11	C86	1.3952202911231246
C12	C29	1.472641691115858
C12	H12	1.1399919738155568
C12	C85	1.3952202911231244
C13	C28	1.4726416911158562
C13	H13	1.1399919738155564
C13	C84	1.395220291123126
C14	C27	1.4726416911158564
C14	H14	1.1399919738155588
C14	C83	1.3952202911231262
C15	C26	1.4726416911158562
C15	H15	1.1399919738155564
C15	C82	1.3952202911231262
C16	C25	1.4726416911158566
C16	H16	1.1399919738155588
C16	C81	1.395220291123126
C17	H17	1.1399919738155582
C17	C89	1.3952202911231255
C18	H18	1.1399919738155577
C18	C90	1.3952202911231257
C19	H19	1.1399919738155584
C19	C91	1.3952202911231257
C20	H20	1.1399919738155575
C20	C92	1.3952202911231255
C21	H21	1.1399919738155568
C21	C93	1.395220291123125
C22	H22	1.139991973815558
C22	C94	1.3952202911231255
C23	H23	1.1399919738155575
C23	C95	1.395220291123125
C24	H24	1.1399919738155573
C24	C96	1.3952202911231255
C25	H25	1.1399919738155573
C25	C96	1.3952202911231255
C26	H26	1.1399919738155575
C26	C95	1.395220291123125
C27	H27	1.1399919738155568
C27	C94	1.395220291123125
C28	H28	1.139991973815558
C28	C93	1.3952202911231255
C29	H29	1.1399919738155584
C29	C92	1.3952202911231257
C30	H30	1.1399919738155575
C30	C91	1.3952202911231255
C31	H31	1.1399919738155577
C31	C90	1.3952202911231257
C32	H32	1.1399919738155582
C32	C89	1.3952202911231255
Ti1	O33	1.9407501962463893
Ti1	O49	1.9815673784789631
Ti1	O54	1.9815673784789636
Ti1	O65	1.9826607596810866
Ti2	O34	1.9407501962463896
Ti2	O66	1.9826607596810863
Ti3	O35	1.9407501962463891
Ti3	O67	1.9826607596810877
Ti4	O36	1.9407501962463898
Ti4	O52	1.9815673784789627
Ti4	O56	1.9815673784789631
Ti4	O68	1.9826607596810852
Ti5	O37	1.9407501962463898
Ti5	O50	1.9815673784789627
Ti5	O53	1.9815673784789631
Ti5	O67	1.9826607596810852
Ti6	O38	1.9407501962463891
Ti6	O68	1.9826607596810877
Ti7	O39	1.9407501962463893
Ti7	O51	1.9815673784789631
Ti7	O55	1.9815673784789636
Ti7	O65	1.9826607596810866
Ti8	O40	1.9407501962463896
Ti8	O66	1.9826607596810863
Ti9	O41	1.940750196246388
Ti9	O62	1.9815673784789642
Ti9	O69	1.982660759681086
Ti10	O42	1.94075019624639
Ti10	O61	1.9815673784789627
Ti10	O70	1.9826607596810857
Ti11	O43	1.9407501962463884
Ti11	O63	1.981567378478963
Ti11	O71	1.9826607596810848
Ti12	O44	1.9407501962463896
Ti12	O64	1.981567378478964
Ti12	O72	1.9826607596810868
Ti13	O45	1.9407501962463896
Ti13	O61	1.981567378478964
Ti13	O71	1.9826607596810868
Ti14	O46	1.9407501962463884
Ti14	O62	1.981567378478963
Ti14	O72	1.9826607596810848
Ti15	O47	1.940750196246388
Ti15	O63	1.9815673784789642
Ti15	O69	1.982660759681086
Ti16	O48	1.94075019624639
Ti16	O64	1.9815673784789627
Ti16	O70	1.9826607596810857
O33	C49	1.3100791510202876
O36	C52	1.3100791510202876
O37	C50	1.3100791510202876
O39	C51	1.3100791510202876
O41	C53	1.3100791510202898
O42	C54	1.3100791510202865
O43	C55	1.3100791510202854
O44	C56	1.310079151020291
O45	C54	1.310079151020291
O46	C53	1.3100791510202854
O47	C55	1.3100791510202898
O48	C56	1.3100791510202865
C33	C37	1.372956480000001
C33	C57	1.4826519316881224
C34	C38	1.372956480000001
C35	C40	1.372956480000001
C36	C39	1.372956480000001
C36	C60	1.482651931688121
C37	C58	1.482651931688121
C39	C59	1.4826519316881224
C41	C61	1.4826519316881217
C42	C62	1.4826519316881195
C43	C63	1.4826519316881202
C44	C64	1.4826519316881213
C45	C62	1.4826519316881213
C46	C61	1.4826519316881202
C47	C63	1.4826519316881217
C48	C64	1.4826519316881195
C49	C57	1.4139959399999995
C50	C58	1.4139959399999995
C51	C59	1.4139959399999995
C52	C60	1.4139959399999995
C53	C61	1.4139959400000013
C54	C62	1.4139959399999995
C55	C63	1.4139959400000013
C56	C64	1.4139959399999995
C65	C81	1.6573146429037862
C66	C82	1.657314642903789
C67	C83	1.6573146429037877
C68	C84	1.6573146429037877
C69	C85	1.6573146429037893
C70	C86	1.6573146429037893
C71	C87	1.657314642903788
C72	C88	1.6573146429037906
C73	C89	1.6573146429037924
C74	C90	1.6573146429037902
C75	C91	1.6573146429037913
C76	C92	1.6573146429037913
C77	C93	1.65731464290379
C78	C94	1.65731464290379
C79	C95	1.6573146429037913
C80	C96	1.6573146429037888
